Process the provided CDS sequences in `benchmark/dataset/CompoDynamics/GCF_009428885.1_ASM942888v1_cds_from_genomic.fna`. 

Filter out sequences that meet any of the following criteria: 1) length is not a multiple of 3; 2) does not start with an "ATG" codon; 3) does not end with a standard stop codon ("TAA", "TAG", or "TGA"); 4) contains an internal stop codon. 

Save the remaining valid sequences to `/root/biodatalab/log/biomni_v20260209_pred_results/Vendor2/Claude-4.5-Sonnet/compodynamics_integration.fna`.

All temp data should be save in `/root/biodatalab/log/biomni_v20260209_tmp/Vendor2/Claude-4.5-Sonnet/compodynamics_integration`.

I'll help you process the CDS sequences and filter them according to the specified criteria. Let me start by creating a plan and then executing it step by step.

## Plan

1. [ ] Set up the environment and create necessary directories
2. [ ] Load and examine the input FASTA file
3. [ ] Implement filtering logic for the sequences
4. [ ] Apply filters and save valid sequences
5. [ ] Generate summary statistics

Let me start executing this plan:

<execute>
import os
from pathlib import Path
from Bio import SeqIO
from Bio.Seq import Seq

# Define paths
input_file = "benchmark/dataset/CompoDynamics/GCF_009428885.1_ASM942888v1_cds_from_genomic.fna"
output_file = "/root/biodatalab/log/biomni_v20260209_pred_results/Vendor2/Claude-4.5-Sonnet/compodynamics_integration.fna"
tmp_dir = "/root/biodatalab/log/biomni_v20260209_tmp/Vendor2/Claude-4.5-Sonnet/compodynamics_integration"

# Create necessary directories
os.makedirs(os.path.dirname(output_file), exist_ok=True)
os.makedirs(tmp_dir, exist_ok=True)

print("Step 1: Environment setup complete")
print(f"Input file: {input_file}")
print(f"Output file: {output_file}")
print(f"Temp directory: {tmp_dir}")
print(f"Directories created successfully")
</execute>
<observation>Step 1: Environment setup complete
Input file: benchmark/dataset/CompoDynamics/GCF_009428885.1_ASM942888v1_cds_from_genomic.fna
Output file: /root/biodatalab/log/biomni_v20260209_pred_results/Vendor2/Claude-4.5-Sonnet/compodynamics_integration.fna
Temp directory: /root/biodatalab/log/biomni_v20260209_tmp/Vendor2/Claude-4.5-Sonnet/compodynamics_integration
Directories created successfully
</observation>
## Updated Plan

1. [✓] Set up the environment and create necessary directories
2. [ ] Load and examine the input FASTA file
3. [ ] Implement filtering logic for the sequences
4. [ ] Apply filters and save valid sequences
5. [ ] Generate summary statistics

<execute>
# Load and examine the input file
print("\nStep 2: Loading and examining input file...")

# Check if file exists
if not os.path.exists(input_file):
    print(f"ERROR: Input file not found: {input_file}")
else:
    print(f"Input file found: {input_file}")
    
# Count total sequences
total_sequences = 0
sample_sequences = []

for record in SeqIO.parse(input_file, "fasta"):
    total_sequences += 1
    if total_sequences <= 3:
        sample_sequences.append({
            'id': record.id,
            'length': len(record.seq),
            'sequence': str(record.seq)[:60] + "..." if len(record.seq) > 60 else str(record.seq)
        })

print(f"\nTotal sequences in input file: {total_sequences}")
print(f"\nSample of first 3 sequences:")
for i, sample in enumerate(sample_sequences, 1):
    print(f"\n  Sequence {i}:")
    print(f"    ID: {sample['id']}")
    print(f"    Length: {sample['length']}")
    print(f"    Start: {sample['sequence'][:60]}")
</execute>
<observation>NameError("name 'os' is not defined")</observation>
<execute>
import os
from pathlib import Path
from Bio import SeqIO
from Bio.Seq import Seq

# Define paths
input_file = "benchmark/dataset/CompoDynamics/GCF_009428885.1_ASM942888v1_cds_from_genomic.fna"
output_file = "/root/biodatalab/log/biomni_v20260209_pred_results/Vendor2/Claude-4.5-Sonnet/compodynamics_integration.fna"
tmp_dir = "/root/biodatalab/log/biomni_v20260209_tmp/Vendor2/Claude-4.5-Sonnet/compodynamics_integration"

# Create necessary directories
os.makedirs(os.path.dirname(output_file), exist_ok=True)
os.makedirs(tmp_dir, exist_ok=True)

print("Step 2: Loading and examining input file...")

# Check if file exists
if not os.path.exists(input_file):
    print(f"ERROR: Input file not found: {input_file}")
else:
    print(f"Input file found: {input_file}")
    
# Count total sequences
total_sequences = 0
sample_sequences = []

for record in SeqIO.parse(input_file, "fasta"):
    total_sequences += 1
    if total_sequences <= 3:
        sample_sequences.append({
            'id': record.id,
            'length': len(record.seq),
            'sequence': str(record.seq)[:60] + "..." if len(record.seq) > 60 else str(record.seq)
        })

print(f"\nTotal sequences in input file: {total_sequences}")
print(f"\nSample of first 3 sequences:")
for i, sample in enumerate(sample_sequences, 1):
    print(f"\n  Sequence {i}:")
    print(f"    ID: {sample['id']}")
    print(f"    Length: {sample['length']}")
    print(f"    Start: {sample['sequence'][:60]}")
</execute>
<observation>Step 2: Loading and examining input file...
Input file found: benchmark/dataset/CompoDynamics/GCF_009428885.1_ASM942888v1_cds_from_genomic.fna

Total sequences in input file: 2701

Sample of first 3 sequences:

  Sequence 1:
    ID: lcl|NZ_WHYS01000010.1_cds_WP_152943596.1_1
    Length: 810
    Start: TTGAGGAGAGTTGAAATAAAAGGAATAGTTAGGAACGTCTCTCCTCTGAGGATAGGGAAT

  Sequence 2:
    ID: lcl|NZ_WHYS01000010.1_cds_WP_152943598.1_2
    Length: 798
    Start: ATGCAAGGATTCAATACCCAATGTAAATCTGAACCCACTCCTAGAAATATAGGAGAAAAG

  Sequence 3:
    ID: lcl|NZ_WHYS01000010.1_cds_WP_282958799.1_3
    Length: 126
    Start: ATGAGAATTTGCATTAAGAGGGATCTCTCAATTACCTTTGAAGAGAAGGAATGCGTTAAG
</observation>
## Updated Plan

1. [✓] Set up the environment and create necessary directories
2. [✓] Load and examine the input FASTA file (2701 sequences found)
3. [ ] Implement filtering logic for the sequences
4. [ ] Apply filters and save valid sequences
5. [ ] Generate summary statistics

<execute>
print("\nStep 3: Implementing filtering logic...")

# Define standard stop codons
STOP_CODONS = ["TAA", "TAG", "TGA"]
START_CODON = "ATG"

def check_sequence_validity(seq_str):
    """
    Check if a sequence is valid based on the filtering criteria.
    Returns: (is_valid, reason_for_rejection)
    """
    seq_str = seq_str.upper()
    
    # Criterion 1: Length must be a multiple of 3
    if len(seq_str) % 3 != 0:
        return False, "length_not_multiple_of_3"
    
    # Criterion 2: Must start with ATG
    if not seq_str.startswith(START_CODON):
        return False, "no_start_codon"
    
    # Criterion 3: Must end with a stop codon
    last_codon = seq_str[-3:]
    if last_codon not in STOP_CODONS:
        return False, "no_stop_codon"
    
    # Criterion 4: Must not contain internal stop codons
    # Check all codons except the last one
    for i in range(0, len(seq_str) - 3, 3):
        codon = seq_str[i:i+3]
        if codon in STOP_CODONS:
            return False, "internal_stop_codon"
    
    return True, "valid"

# Test the function with sample sequences
print("\nTesting filter function with first 3 sequences:")
for i, sample in enumerate(sample_sequences, 1):
    is_valid, reason = check_sequence_validity(sample['sequence'].replace('...', ''))
    print(f"  Sequence {i}: {reason}")

print("\nFilter function implemented successfully")
</execute>
<observation>NameError("name 'sample_sequences' is not defined")</observation>
<execute>
import os
from pathlib import Path
from Bio import SeqIO
from Bio.Seq import Seq

# Define paths
input_file = "benchmark/dataset/CompoDynamics/GCF_009428885.1_ASM942888v1_cds_from_genomic.fna"
output_file = "/root/biodatalab/log/biomni_v20260209_pred_results/Vendor2/Claude-4.5-Sonnet/compodynamics_integration.fna"
tmp_dir = "/root/biodatalab/log/biomni_v20260209_tmp/Vendor2/Claude-4.5-Sonnet/compodynamics_integration"

# Create necessary directories
os.makedirs(os.path.dirname(output_file), exist_ok=True)
os.makedirs(tmp_dir, exist_ok=True)

print("Step 3: Implementing filtering logic...")

# Define standard stop codons
STOP_CODONS = ["TAA", "TAG", "TGA"]
START_CODON = "ATG"

def check_sequence_validity(seq_str):
    """
    Check if a sequence is valid based on the filtering criteria.
    Returns: (is_valid, reason_for_rejection)
    """
    seq_str = seq_str.upper()
    
    # Criterion 1: Length must be a multiple of 3
    if len(seq_str) % 3 != 0:
        return False, "length_not_multiple_of_3"
    
    # Criterion 2: Must start with ATG
    if not seq_str.startswith(START_CODON):
        return False, "no_start_codon"
    
    # Criterion 3: Must end with a stop codon
    last_codon = seq_str[-3:]
    if last_codon not in STOP_CODONS:
        return False, "no_stop_codon"
    
    # Criterion 4: Must not contain internal stop codons
    # Check all codons except the last one
    for i in range(0, len(seq_str) - 3, 3):
        codon = seq_str[i:i+3]
        if codon in STOP_CODONS:
            return False, "internal_stop_codon"
    
    return True, "valid"

# Test with a few sequences
print("\nTesting filter function with first 3 sequences from file:")
test_count = 0
for record in SeqIO.parse(input_file, "fasta"):
    test_count += 1
    if test_count <= 3:
        seq_str = str(record.seq)
        is_valid, reason = check_sequence_validity(seq_str)
        print(f"  Sequence {test_count} ({record.id}):")
        print(f"    Length: {len(seq_str)}")
        print(f"    Starts with: {seq_str[:3]}")
        print(f"    Ends with: {seq_str[-3:]}")
        print(f"    Result: {reason}")
    else:
        break

print("\nFilter function implemented and tested successfully")
</execute>
<observation>NameError("name 'START_CODON' is not defined")</observation>
<execute>
import os
from pathlib import Path
from Bio import SeqIO
from Bio.Seq import Seq

# Define paths
input_file = "benchmark/dataset/CompoDynamics/GCF_009428885.1_ASM942888v1_cds_from_genomic.fna"
output_file = "/root/biodatalab/log/biomni_v20260209_pred_results/Vendor2/Claude-4.5-Sonnet/compodynamics_integration.fna"
tmp_dir = "/root/biodatalab/log/biomni_v20260209_tmp/Vendor2/Claude-4.5-Sonnet/compodynamics_integration"

# Create necessary directories
os.makedirs(os.path.dirname(output_file), exist_ok=True)
os.makedirs(tmp_dir, exist_ok=True)

print("Step 3: Implementing filtering logic...")

# Define standard stop codons and start codon
STOP_CODONS = ["TAA", "TAG", "TGA"]
START_CODON = "ATG"

def check_sequence_validity(seq_str):
    """
    Check if a sequence is valid based on the filtering criteria.
    Returns: (is_valid, reason_for_rejection)
    """
    seq_str = seq_str.upper()
    
    # Criterion 1: Length must be a multiple of 3
    if len(seq_str) % 3 != 0:
        return False, "length_not_multiple_of_3"
    
    # Criterion 2: Must start with ATG
    if not seq_str.startswith(START_CODON):
        return False, "no_start_codon"
    
    # Criterion 3: Must end with a stop codon
    last_codon = seq_str[-3:]
    if last_codon not in STOP_CODONS:
        return False, "no_stop_codon"
    
    # Criterion 4: Must not contain internal stop codons
    # Check all codons except the last one
    for i in range(0, len(seq_str) - 3, 3):
        codon = seq_str[i:i+3]
        if codon in STOP_CODONS:
            return False, "internal_stop_codon"
    
    return True, "valid"

# Test with a few sequences
print("\nTesting filter function with first 3 sequences from file:")
test_count = 0
for record in SeqIO.parse(input_file, "fasta"):
    test_count += 1
    if test_count <= 3:
        seq_str = str(record.seq)
        is_valid, reason = check_sequence_validity(seq_str)
        print(f"  Sequence {test_count} ({record.id}):")
        print(f"    Length: {len(seq_str)}")
        print(f"    Starts with: {seq_str[:3]}")
        print(f"    Ends with: {seq_str[-3:]}")
        print(f"    Result: {reason}")
    else:
        break

print("\nFilter function implemented and tested successfully")
</execute>
<observation>NameError("name 'START_CODON' is not defined")</observation>
<execute>
import os
from pathlib import Path
from Bio import SeqIO
from Bio.Seq import Seq

# Define paths
input_file = "benchmark/dataset/CompoDynamics/GCF_009428885.1_ASM942888v1_cds_from_genomic.fna"
output_file = "/root/biodatalab/log/biomni_v20260209_pred_results/Vendor2/Claude-4.5-Sonnet/compodynamics_integration.fna"
tmp_dir = "/root/biodatalab/log/biomni_v20260209_tmp/Vendor2/Claude-4.5-Sonnet/compodynamics_integration"

# Create necessary directories
os.makedirs(os.path.dirname(output_file), exist_ok=True)
os.makedirs(tmp_dir, exist_ok=True)

print("Step 3: Implementing filtering logic...")

def check_sequence_validity(seq_str):
    """
    Check if a sequence is valid based on the filtering criteria.
    Returns: (is_valid, reason_for_rejection)
    """
    # Define standard stop codons and start codon
    stop_codons = ["TAA", "TAG", "TGA"]
    start_codon = "ATG"
    
    seq_str = seq_str.upper()
    
    # Criterion 1: Length must be a multiple of 3
    if len(seq_str) % 3 != 0:
        return False, "length_not_multiple_of_3"
    
    # Criterion 2: Must start with ATG
    if not seq_str.startswith(start_codon):
        return False, "no_start_codon"
    
    # Criterion 3: Must end with a stop codon
    last_codon = seq_str[-3:]
    if last_codon not in stop_codons:
        return False, "no_stop_codon"
    
    # Criterion 4: Must not contain internal stop codons
    # Check all codons except the last one
    for i in range(0, len(seq_str) - 3, 3):
        codon = seq_str[i:i+3]
        if codon in stop_codons:
            return False, "internal_stop_codon"
    
    return True, "valid"

# Test with a few sequences
print("\nTesting filter function with first 3 sequences from file:")
test_count = 0
for record in SeqIO.parse(input_file, "fasta"):
    test_count += 1
    if test_count <= 3:
        seq_str = str(record.seq)
        is_valid, reason = check_sequence_validity(seq_str)
        print(f"  Sequence {test_count} ({record.id}):")
        print(f"    Length: {len(seq_str)}")
        print(f"    Starts with: {seq_str[:3]}")
        print(f"    Ends with: {seq_str[-3:]}")
        print(f"    Result: {reason}")
    else:
        break

print("\nFilter function implemented and tested successfully")
</execute>
<observation>Step 3: Implementing filtering logic...

Testing filter function with first 3 sequences from file:
  Sequence 1 (lcl|NZ_WHYS01000010.1_cds_WP_152943596.1_1):
    Length: 810
    Starts with: TTG
    Ends with: TAA
    Result: no_start_codon
  Sequence 2 (lcl|NZ_WHYS01000010.1_cds_WP_152943598.1_2):
    Length: 798
    Starts with: ATG
    Ends with: TGA
    Result: valid
  Sequence 3 (lcl|NZ_WHYS01000010.1_cds_WP_282958799.1_3):
    Length: 126
    Starts with: ATG
    Ends with: TGA
    Result: valid

Filter function implemented and tested successfully
</observation>
## Updated Plan

1. [✓] Set up the environment and create necessary directories
2. [✓] Load and examine the input FASTA file (2701 sequences found)
3. [✓] Implement filtering logic for the sequences
4. [ ] Apply filters and save valid sequences
5. [ ] Generate summary statistics

<execute>
print("\nStep 4: Applying filters and saving valid sequences...")

# Initialize counters for statistics
stats = {
    'total': 0,
    'valid': 0,
    'length_not_multiple_of_3': 0,
    'no_start_codon': 0,
    'no_stop_codon': 0,
    'internal_stop_codon': 0
}

# Open output file for writing valid sequences
valid_sequences = []

print("Processing all sequences...")
for record in SeqIO.parse(input_file, "fasta"):
    stats['total'] += 1
    seq_str = str(record.seq)
    
    is_valid, reason = check_sequence_validity(seq_str)
    
    if is_valid:
        stats['valid'] += 1
        valid_sequences.append(record)
    else:
        stats[reason] += 1
    
    # Print progress every 500 sequences
    if stats['total'] % 500 == 0:
        print(f"  Processed {stats['total']} sequences... (Valid so far: {stats['valid']})")

# Write valid sequences to output file
print(f"\nWriting {stats['valid']} valid sequences to output file...")
SeqIO.write(valid_sequences, output_file, "fasta")

print(f"Valid sequences saved to: {output_file}")
</execute>
<observation>NameError("name 'SeqIO' is not defined")</observation>
<execute>
import os
from pathlib import Path
from Bio import SeqIO
from Bio.Seq import Seq

# Define paths
input_file = "benchmark/dataset/CompoDynamics/GCF_009428885.1_ASM942888v1_cds_from_genomic.fna"
output_file = "/root/biodatalab/log/biomni_v20260209_pred_results/Vendor2/Claude-4.5-Sonnet/compodynamics_integration.fna"
tmp_dir = "/root/biodatalab/log/biomni_v20260209_tmp/Vendor2/Claude-4.5-Sonnet/compodynamics_integration"

# Create necessary directories
os.makedirs(os.path.dirname(output_file), exist_ok=True)
os.makedirs(tmp_dir, exist_ok=True)

def check_sequence_validity(seq_str):
    """
    Check if a sequence is valid based on the filtering criteria.
    Returns: (is_valid, reason_for_rejection)
    """
    # Define standard stop codons and start codon
    stop_codons = ["TAA", "TAG", "TGA"]
    start_codon = "ATG"
    
    seq_str = seq_str.upper()
    
    # Criterion 1: Length must be a multiple of 3
    if len(seq_str) % 3 != 0:
        return False, "length_not_multiple_of_3"
    
    # Criterion 2: Must start with ATG
    if not seq_str.startswith(start_codon):
        return False, "no_start_codon"
    
    # Criterion 3: Must end with a stop codon
    last_codon = seq_str[-3:]
    if last_codon not in stop_codons:
        return False, "no_stop_codon"
    
    # Criterion 4: Must not contain internal stop codons
    # Check all codons except the last one
    for i in range(0, len(seq_str) - 3, 3):
        codon = seq_str[i:i+3]
        if codon in stop_codons:
            return False, "internal_stop_codon"
    
    return True, "valid"

print("\nStep 4: Applying filters and saving valid sequences...")

# Initialize counters for statistics
stats = {
    'total': 0,
    'valid': 0,
    'length_not_multiple_of_3': 0,
    'no_start_codon': 0,
    'no_stop_codon': 0,
    'internal_stop_codon': 0
}

# Open output file for writing valid sequences
valid_sequences = []

print("Processing all sequences...")
for record in SeqIO.parse(input_file, "fasta"):
    stats['total'] += 1
    seq_str = str(record.seq)
    
    is_valid, reason = check_sequence_validity(seq_str)
    
    if is_valid:
        stats['valid'] += 1
        valid_sequences.append(record)
    else:
        stats[reason] += 1
    
    # Print progress every 500 sequences
    if stats['total'] % 500 == 0:
        print(f"  Processed {stats['total']} sequences... (Valid so far: {stats['valid']})")

# Write valid sequences to output file
print(f"\nWriting {stats['valid']} valid sequences to output file...")
SeqIO.write(valid_sequences, output_file, "fasta")

print(f"Valid sequences saved to: {output_file}")
</execute>
<observation>
Step 4: Applying filters and saving valid sequences...
Processing all sequences...
  Processed 500 sequences... (Valid so far: 364)
  Processed 1000 sequences... (Valid so far: 747)
  Processed 1500 sequences... (Valid so far: 1122)
  Processed 2000 sequences... (Valid so far: 1498)
  Processed 2500 sequences... (Valid so far: 1856)

Writing 1984 valid sequences to output file...
Valid sequences saved to: /root/biodatalab/log/biomni_v20260209_pred_results/Vendor2/Claude-4.5-Sonnet/compodynamics_integration.fna
</observation>
## Updated Plan

1. [✓] Set up the environment and create necessary directories
2. [✓] Load and examine the input FASTA file (2701 sequences found)
3. [✓] Implement filtering logic for the sequences
4. [✓] Apply filters and save valid sequences (1984 valid sequences saved)
5. [ ] Generate summary statistics

<execute>
print("\nStep 5: Generating summary statistics...")

# Calculate percentages
total = stats['total']
valid_pct = (stats['valid'] / total * 100) if total > 0 else 0
filtered_out = total - stats['valid']
filtered_pct = (filtered_out / total * 100) if total > 0 else 0

# Print detailed statistics
print("\n" + "="*70)
print("FILTERING SUMMARY REPORT")
print("="*70)
print(f"\nInput file: {input_file}")
print(f"Output file: {output_file}")
print(f"\nTotal sequences processed: {stats['total']}")
print(f"Valid sequences: {stats['valid']} ({valid_pct:.2f}%)")
print(f"Filtered out: {filtered_out} ({filtered_pct:.2f}%)")

print(f"\nBreakdown of filtered sequences:")
print(f"  - Length not multiple of 3: {stats['length_not_multiple_of_3']} ({stats['length_not_multiple_of_3']/total*100:.2f}%)")
print(f"  - No start codon (ATG): {stats['no_start_codon']} ({stats['no_start_codon']/total*100:.2f}%)")
print(f"  - No stop codon (TAA/TAG/TGA): {stats['no_stop_codon']} ({stats['no_stop_codon']/total*100:.2f}%)")
print(f"  - Internal stop codon: {stats['internal_stop_codon']} ({stats['internal_stop_codon']/total*100:.2f}%)")

# Save statistics to a file in the temp directory
stats_file = os.path.join(tmp_dir, "filtering_statistics.txt")
with open(stats_file, 'w') as f:
    f.write("FILTERING SUMMARY REPORT\n")
    f.write("="*70 + "\n\n")
    f.write(f"Input file: {input_file}\n")
    f.write(f"Output file: {output_file}\n\n")
    f.write(f"Total sequences processed: {stats['total']}\n")
    f.write(f"Valid sequences: {stats['valid']} ({valid_pct:.2f}%)\n")
    f.write(f"Filtered out: {filtered_out} ({filtered_pct:.2f}%)\n\n")
    f.write(f"Breakdown of filtered sequences:\n")
    f.write(f"  - Length not multiple of 3: {stats['length_not_multiple_of_3']} ({stats['length_not_multiple_of_3']/total*100:.2f}%)\n")
    f.write(f"  - No start codon (ATG): {stats['no_start_codon']} ({stats['no_start_codon']/total*100:.2f}%)\n")
    f.write(f"  - No stop codon (TAA/TAG/TGA): {stats['no_stop_codon']} ({stats['no_stop_codon']/total*100:.2f}%)\n")
    f.write(f"  - Internal stop codon: {stats['internal_stop_codon']} ({stats['internal_stop_codon']/total*100:.2f}%)\n")

print(f"\nStatistics saved to: {stats_file}")

# Verify output file
if os.path.exists(output_file):
    output_count = sum(1 for _ in SeqIO.parse(output_file, "fasta"))
    print(f"\nVerification: Output file contains {output_count} sequences")
    if output_count == stats['valid']:
        print("✓ Output verification successful!")
    else:
        print("✗ Warning: Output count mismatch!")
else:
    print("\n✗ Error: Output file was not created!")

print("\n" + "="*70)
print("PROCESSING COMPLETE")
print("="*70)
</execute>
<observation>NameError("name 'stats' is not defined")</observation>
<execute>
import os
from pathlib import Path
from Bio import SeqIO
from Bio.Seq import Seq

# Define paths
input_file = "benchmark/dataset/CompoDynamics/GCF_009428885.1_ASM942888v1_cds_from_genomic.fna"
output_file = "/root/biodatalab/log/biomni_v20260209_pred_results/Vendor2/Claude-4.5-Sonnet/compodynamics_integration.fna"
tmp_dir = "/root/biodatalab/log/biomni_v20260209_tmp/Vendor2/Claude-4.5-Sonnet/compodynamics_integration"

# Create necessary directories
os.makedirs(os.path.dirname(output_file), exist_ok=True)
os.makedirs(tmp_dir, exist_ok=True)

def check_sequence_validity(seq_str):
    """
    Check if a sequence is valid based on the filtering criteria.
    Returns: (is_valid, reason_for_rejection)
    """
    # Define standard stop codons and start codon
    stop_codons = ["TAA", "TAG", "TGA"]
    start_codon = "ATG"
    
    seq_str = seq_str.upper()
    
    # Criterion 1: Length must be a multiple of 3
    if len(seq_str) % 3 != 0:
        return False, "length_not_multiple_of_3"
    
    # Criterion 2: Must start with ATG
    if not seq_str.startswith(start_codon):
        return False, "no_start_codon"
    
    # Criterion 3: Must end with a stop codon
    last_codon = seq_str[-3:]
    if last_codon not in stop_codons:
        return False, "no_stop_codon"
    
    # Criterion 4: Must not contain internal stop codons
    # Check all codons except the last one
    for i in range(0, len(seq_str) - 3, 3):
        codon = seq_str[i:i+3]
        if codon in stop_codons:
            return False, "internal_stop_codon"
    
    return True, "valid"

print("Processing CDS sequences with filtering criteria...")

# Initialize counters for statistics
stats = {
    'total': 0,
    'valid': 0,
    'length_not_multiple_of_3': 0,
    'no_start_codon': 0,
    'no_stop_codon': 0,
    'internal_stop_codon': 0
}

# Open output file for writing valid sequences
valid_sequences = []

print("\nStep 4: Applying filters and saving valid sequences...")
print("Processing all sequences...")

for record in SeqIO.parse(input_file, "fasta"):
    stats['total'] += 1
    seq_str = str(record.seq)
    
    is_valid, reason = check_sequence_validity(seq_str)
    
    if is_valid:
        stats['valid'] += 1
        valid_sequences.append(record)
    else:
        stats[reason] += 1
    
    # Print progress every 500 sequences
    if stats['total'] % 500 == 0:
        print(f"  Processed {stats['total']} sequences... (Valid so far: {stats['valid']})")

# Write valid sequences to output file
print(f"\nWriting {stats['valid']} valid sequences to output file...")
SeqIO.write(valid_sequences, output_file, "fasta")

print(f"Valid sequences saved to: {output_file}")

# Generate summary statistics
print("\nStep 5: Generating summary statistics...")

# Calculate percentages
total = stats['total']
valid_pct = (stats['valid'] / total * 100) if total > 0 else 0
filtered_out = total - stats['valid']
filtered_pct = (filtered_out / total * 100) if total > 0 else 0

# Print detailed statistics
print("\n" + "="*70)
print("FILTERING SUMMARY REPORT")
print("="*70)
print(f"\nInput file: {input_file}")
print(f"Output file: {output_file}")
print(f"\nTotal sequences processed: {stats['total']}")
print(f"Valid sequences: {stats['valid']} ({valid_pct:.2f}%)")
print(f"Filtered out: {filtered_out} ({filtered_pct:.2f}%)")

print(f"\nBreakdown of filtered sequences:")
print(f"  - Length not multiple of 3: {stats['length_not_multiple_of_3']} ({stats['length_not_multiple_of_3']/total*100:.2f}%)")
print(f"  - No start codon (ATG): {stats['no_start_codon']} ({stats['no_start_codon']/total*100:.2f}%)")
print(f"  - No stop codon (TAA/TAG/TGA): {stats['no_stop_codon']} ({stats['no_stop_codon']/total*100:.2f}%)")
print(f"  - Internal stop codon: {stats['internal_stop_codon']} ({stats['internal_stop_codon']/total*100:.2f}%)")

# Save statistics to a file in the temp directory
stats_file = os.path.join(tmp_dir, "filtering_statistics.txt")
with open(stats_file, 'w') as f:
    f.write("FILTERING SUMMARY REPORT\n")
    f.write("="*70 + "\n\n")
    f.write(f"Input file: {input_file}\n")
    f.write(f"Output file: {output_file}\n\n")
    f.write(f"Total sequences processed: {stats['total']}\n")
    f.write(f"Valid sequences: {stats['valid']} ({valid_pct:.2f}%)\n")
    f.write(f"Filtered out: {filtered_out} ({filtered_pct:.2f}%)\n\n")
    f.write(f"Breakdown of filtered sequences:\n")
    f.write(f"  - Length not multiple of 3: {stats['length_not_multiple_of_3']} ({stats['length_not_multiple_of_3']/total*100:.2f}%)\n")
    f.write(f"  - No start codon (ATG): {stats['no_start_codon']} ({stats['no_start_codon']/total*100:.2f}%)\n")
    f.write(f"  - No stop codon (TAA/TAG/TGA): {stats['no_stop_codon']} ({stats['no_stop_codon']/total*100:.2f}%)\n")
    f.write(f"  - Internal stop codon: {stats['internal_stop_codon']} ({stats['internal_stop_codon']/total*100:.2f}%)\n")

print(f"\nStatistics saved to: {stats_file}")

# Verify output file
if os.path.exists(output_file):
    output_count = sum(1 for _ in SeqIO.parse(output_file, "fasta"))
    print(f"\nVerification: Output file contains {output_count} sequences")
    if output_count == stats['valid']:
        print("✓ Output verification successful!")
    else:
        print("✗ Warning: Output count mismatch!")
else:
    print("\n✗ Error: Output file was not created!")

print("\n" + "="*70)
print("PROCESSING COMPLETE")
print("="*70)
</execute>
<observation>Processing CDS sequences with filtering criteria...

Step 4: Applying filters and saving valid sequences...
Processing all sequences...
  Processed 500 sequences... (Valid so far: 364)
  Processed 1000 sequences... (Valid so far: 747)
  Processed 1500 sequences... (Valid so far: 1122)
  Processed 2000 sequences... (Valid so far: 1498)
  Processed 2500 sequences... (Valid so far: 1856)

Writing 1984 valid sequences to output file...
Valid sequences saved to: /root/biodatalab/log/biomni_v20260209_pred_results/Vendor2/Claude-4.5-Sonnet/compodynamics_integration.fna

Step 5: Generating summary statistics...

======================================================================
FILTERING SUMMARY REPORT
======================================================================

Input file: benchmark/dataset/CompoDynamics/GCF_009428885.1_ASM942888v1_cds_from_genomic.fna
Output file: /root/biodatalab/log/biomni_v20260209_pred_results/Vendor2/Claude-4.5-Sonnet/compodynamics_integration.fna

Total sequences processed: 2701
Valid sequences: 1984 (73.45%)
Filtered out: 717 (26.55%)

Breakdown of filtered sequences:
  - Length not multiple of 3: 54 (2.00%)
  - No start codon (ATG): 642 (23.77%)
  - No stop codon (TAA/TAG/TGA): 14 (0.52%)
  - Internal stop codon: 7 (0.26%)

Statistics saved to: /root/biodatalab/log/biomni_v20260209_tmp/Vendor2/Claude-4.5-Sonnet/compodynamics_integration/filtering_statistics.txt

Verification: Output file contains 1984 sequences
✓ Output verification successful!

======================================================================
PROCESSING COMPLETE
======================================================================
</observation>
## Updated Plan

1. [✓] Set up the environment and create necessary directories
2. [✓] Load and examine the input FASTA file (2701 sequences found)
3. [✓] Implement filtering logic for the sequences
4. [✓] Apply filters and save valid sequences (1984 valid sequences saved)
5. [✓] Generate summary statistics

Perfect! Let me verify the output file one more time to ensure everything is correct:

<execute>
print("Final verification of output file...")
print(f"\nOutput file location: {output_file}")
print(f"Temp directory: {tmp_dir}")

# Check file sizes
input_size = os.path.getsize(input_file)
output_size = os.path.getsize(output_file)

print(f"\nFile sizes:")
print(f"  Input file: {input_size:,} bytes")
print(f"  Output file: {output_size:,} bytes")

# Sample a few sequences from output to verify they meet criteria
print(f"\nSampling 5 sequences from output file to verify filtering:")
sample_count = 0
for record in SeqIO.parse(output_file, "fasta"):
    sample_count += 1
    if sample_count <= 5:
        seq_str = str(record.seq).upper()
        print(f"\n  Sequence {sample_count}: {record.id}")
        print(f"    Length: {len(seq_str)} (multiple of 3: {len(seq_str) % 3 == 0})")
        print(f"    Starts with: {seq_str[:3]} (is ATG: {seq_str[:3] == 'ATG'})")
        print(f"    Ends with: {seq_str[-3:]} (is stop codon: {seq_str[-3:] in ['TAA', 'TAG', 'TGA']})")
        
        # Check for internal stop codons
        has_internal_stop = False
        for i in range(0, len(seq_str) - 3, 3):
            if seq_str[i:i+3] in ['TAA', 'TAG', 'TGA']:
                has_internal_stop = True
                break
        print(f"    Has internal stop: {has_internal_stop}")
    else:
        break

print("\n" + "="*70)
print("ALL TASKS COMPLETED SUCCESSFULLY!")
print("="*70)
print(f"\n✓ Processed {stats['total']} CDS sequences")
print(f"✓ Filtered and saved {stats['valid']} valid sequences")
print(f"✓ Output saved to: {output_file}")
print(f"✓ Statistics saved to: {stats_file}")
</execute>
<observation>NameError("name 'output_file' is not defined")</observation>
<execute>
import os
from pathlib import Path
from Bio import SeqIO

# Define paths
input_file = "benchmark/dataset/CompoDynamics/GCF_009428885.1_ASM942888v1_cds_from_genomic.fna"
output_file = "/root/biodatalab/log/biomni_v20260209_pred_results/Vendor2/Claude-4.5-Sonnet/compodynamics_integration.fna"
tmp_dir = "/root/biodatalab/log/biomni_v20260209_tmp/Vendor2/Claude-4.5-Sonnet/compodynamics_integration"
stats_file = os.path.join(tmp_dir, "filtering_statistics.txt")

print("Final verification of output file...")
print(f"\nOutput file location: {output_file}")
print(f"Temp directory: {tmp_dir}")

# Check file sizes
input_size = os.path.getsize(input_file)
output_size = os.path.getsize(output_file)

print(f"\nFile sizes:")
print(f"  Input file: {input_size:,} bytes")
print(f"  Output file: {output_size:,} bytes")

# Count sequences in output
output_count = sum(1 for _ in SeqIO.parse(output_file, "fasta"))
print(f"\nOutput file contains: {output_count} sequences")

# Sample a few sequences from output to verify they meet criteria
print(f"\nSampling 5 sequences from output file to verify filtering:")
sample_count = 0
for record in SeqIO.parse(output_file, "fasta"):
    sample_count += 1
    if sample_count <= 5:
        seq_str = str(record.seq).upper()
        print(f"\n  Sequence {sample_count}: {record.id}")
        print(f"    Length: {len(seq_str)} (multiple of 3: {len(seq_str) % 3 == 0})")
        print(f"    Starts with: {seq_str[:3]} (is ATG: {seq_str[:3] == 'ATG'})")
        print(f"    Ends with: {seq_str[-3:]} (is stop codon: {seq_str[-3:] in ['TAA', 'TAG', 'TGA']})")
        
        # Check for internal stop codons
        has_internal_stop = False
        for i in range(0, len(seq_str) - 3, 3):
            if seq_str[i:i+3] in ['TAA', 'TAG', 'TGA']:
                has_internal_stop = True
                break
        print(f"    Has internal stop: {has_internal_stop}")
    else:
        break

print("\n" + "="*70)
print("ALL TASKS COMPLETED SUCCESSFULLY!")
print("="*70)
print(f"\n✓ Processed 2701 CDS sequences from input file")
print(f"✓ Filtered and saved 1984 valid sequences (73.45%)")
print(f"✓ Filtered out 717 sequences (26.55%):")
print(f"  - 54 sequences: length not multiple of 3")
print(f"  - 642 sequences: no start codon (ATG)")
print(f"  - 14 sequences: no stop codon")
print(f"  - 7 sequences: internal stop codon")
print(f"\n✓ Output saved to: {output_file}")
print(f"✓ Statistics saved to: {stats_file}")
</execute>
<observation>Final verification of output file...

Output file location: /root/biodatalab/log/biomni_v20260209_pred_results/Vendor2/Claude-4.5-Sonnet/compodynamics_integration.fna
Temp directory: /root/biodatalab/log/biomni_v20260209_tmp/Vendor2/Claude-4.5-Sonnet/compodynamics_integration

File sizes:
  Input file: 2,602,514 bytes
  Output file: 1,953,189 bytes

Output file contains: 1984 sequences

Sampling 5 sequences from output file to verify filtering:

  Sequence 1: lcl|NZ_WHYS01000010.1_cds_WP_152943598.1_2
    Length: 798 (multiple of 3: True)
    Starts with: ATG (is ATG: True)
    Ends with: TGA (is stop codon: True)
    Has internal stop: False

  Sequence 2: lcl|NZ_WHYS01000010.1_cds_WP_282958799.1_3
    Length: 126 (multiple of 3: True)
    Starts with: ATG (is ATG: True)
    Ends with: TGA (is stop codon: True)
    Has internal stop: False

  Sequence 3: lcl|NZ_WHYS01000013.1_cds_WP_152943608.1_8
    Length: 339 (multiple of 3: True)
    Starts with: ATG (is ATG: True)
    Ends with: TAG (is stop codon: True)
    Has internal stop: False

  Sequence 4: lcl|NZ_WHYS01000013.1_cds_WP_152943610.1_9
    Length: 1227 (multiple of 3: True)
    Starts with: ATG (is ATG: True)
    Ends with: TAA (is stop codon: True)
    Has internal stop: False

  Sequence 5: lcl|NZ_WHYS01000014.1_cds_WP_152943612.1_11
    Length: 573 (multiple of 3: True)
    Starts with: ATG (is ATG: True)
    Ends with: TGA (is stop codon: True)
    Has internal stop: False

======================================================================
ALL TASKS COMPLETED SUCCESSFULLY!
======================================================================

✓ Processed 2701 CDS sequences from input file
✓ Filtered and saved 1984 valid sequences (73.45%)
✓ Filtered out 717 sequences (26.55%):
  - 54 sequences: length not multiple of 3
  - 642 sequences: no start codon (ATG)
  - 14 sequences: no stop codon
  - 7 sequences: internal stop codon

✓ Output saved to: /root/biodatalab/log/biomni_v20260209_pred_results/Vendor2/Claude-4.5-Sonnet/compodynamics_integration.fna
✓ Statistics saved to: /root/biodatalab/log/biomni_v20260209_tmp/Vendor2/Claude-4.5-Sonnet/compodynamics_integration/filtering_statistics.txt
</observation>
Perfect! The task has been completed successfully. Let me provide a final summary:

<solution>
## Task Completion Summary

I have successfully processed the CDS sequences from the input file and applied all the required filtering criteria. Here are the results:

### Input
- File: `benchmark/dataset/CompoDynamics/GCF_009428885.1_ASM942888v1_cds_from_genomic.fna`
- Total sequences: 2,701

### Filtering Criteria Applied
1. ✓ Length must be a multiple of 3
2. ✓ Must start with "ATG" codon
3. ✓ Must end with a standard stop codon ("TAA", "TAG", or "TGA")
4. ✓ Must not contain internal stop codons

### Results
- **Valid sequences saved**: 1,984 (73.45%)
- **Sequences filtered out**: 717 (26.55%)
  - Length not multiple of 3: 54 sequences (2.00%)
  - No start codon (ATG): 642 sequences (23.77%)
  - No stop codon: 14 sequences (0.52%)
  - Internal stop codon: 7 sequences (0.26%)

### Output Files
1. **Filtered sequences**: `/root/biodatalab/log/biomni_v20260209_pred_results/Vendor2/Claude-4.5-Sonnet/compodynamics_integration.fna`
2. **Statistics report**: `/root/biodatalab/log/biomni_v20260209_tmp/Vendor2/Claude-4.5-Sonnet/compodynamics_integration/filtering_statistics.txt`

All output sequences have been verified to meet the filtering criteria.
</solution>