Convert the molecular structure provided in the MOL file `benchmark/dataset/M2OR/1a1e_ligand.mol2` into its standard InChIKey.
Save the resulting InChIKey string into the output file `/root/biodatalab/log/biomni_v20260209_pred_results/Vendor2/Claude-4.5-Sonnet/m2or_refinement.txt`.
All intermediate code generated during execution, downloaded files, and temporary results must be stored in `/root/biodatalab/log/biomni_v20260209_tmp/Vendor2/Claude-4.5-Sonnet/m2or_refinement/`
I'll help you convert the molecular structure from the MOL2 file to its InChIKey format. Let me start by creating a plan.

## Plan:
1. [ ] Set up the working directories and verify file paths
2. [ ] Read the MOL2 file and load the molecular structure
3. [ ] Convert the molecular structure to InChIKey using RDKit
4. [ ] Save the InChIKey to the output file
5. [ ] Verify the results

Let me start executing this plan step by step.

<execute>
import os
import subprocess
from pathlib import Path

# Define paths
input_file = "benchmark/dataset/M2OR/1a1e_ligand.mol2"
output_file = "/root/biodatalab/log/biomni_v20260209_pred_results/Vendor2/Claude-4.5-Sonnet/m2or_refinement.txt"
temp_dir = "/root/biodatalab/log/biomni_v20260209_tmp/Vendor2/Claude-4.5-Sonnet/m2or_refinement/"

# Create necessary directories
os.makedirs(os.path.dirname(output_file), exist_ok=True)
os.makedirs(temp_dir, exist_ok=True)

print("Step 1: Setting up directories")
print(f"Input file: {input_file}")
print(f"Output file: {output_file}")
print(f"Temp directory: {temp_dir}")
print(f"Input file exists: {os.path.exists(input_file)}")
</execute>
<observation>Step 1: Setting up directories
Input file: benchmark/dataset/M2OR/1a1e_ligand.mol2
Output file: /root/biodatalab/log/biomni_v20260209_pred_results/Vendor2/Claude-4.5-Sonnet/m2or_refinement.txt
Temp directory: /root/biodatalab/log/biomni_v20260209_tmp/Vendor2/Claude-4.5-Sonnet/m2or_refinement/
Input file exists: True
</observation>
Good! The input file exists and directories are set up. Let me update the plan and proceed to read the MOL2 file.

## Plan:
1. [✓] Set up the working directories and verify file paths
2. [ ] Read the MOL2 file and load the molecular structure
3. [ ] Convert the molecular structure to InChIKey using RDKit
4. [ ] Save the InChIKey to the output file
5. [ ] Verify the results

<execute>
from rdkit import Chem
from rdkit.Chem import Descriptors

print("Step 2: Reading MOL2 file and loading molecular structure")

# Read the MOL2 file using RDKit
mol = Chem.MolFromMol2File(input_file)

if mol is None:
    print("Error: Failed to read molecule from MOL2 file")
else:
    print("Successfully loaded molecule from MOL2 file")
    print(f"Number of atoms: {mol.GetNumAtoms()}")
    print(f"Molecular formula: {Chem.rdMolDescriptors.CalcMolFormula(mol)}")
</execute>
<observation>NameError("name 'input_file' is not defined")</observation>
Let me redefine the variables and continue:

<execute>
from rdkit import Chem
from rdkit.Chem import Descriptors

# Redefine paths
input_file = "benchmark/dataset/M2OR/1a1e_ligand.mol2"
output_file = "/root/biodatalab/log/biomni_v20260209_pred_results/Vendor2/Claude-4.5-Sonnet/m2or_refinement.txt"
temp_dir = "/root/biodatalab/log/biomni_v20260209_tmp/Vendor2/Claude-4.5-Sonnet/m2or_refinement/"

print("Step 2: Reading MOL2 file and loading molecular structure")

# Read the MOL2 file using RDKit
mol = Chem.MolFromMol2File(input_file)

if mol is None:
    print("Error: Failed to read molecule from MOL2 file")
else:
    print("Successfully loaded molecule from MOL2 file")
    print(f"Number of atoms: {mol.GetNumAtoms()}")
    print(f"Molecular formula: {Chem.rdMolDescriptors.CalcMolFormula(mol)}")
</execute>
<observation>Step 2: Reading MOL2 file and loading molecular structure
Successfully loaded molecule from MOL2 file
Number of atoms: 38
Molecular formula: C25H35N3O9P-3
</observation>
Excellent! The molecule was successfully loaded. Now let me convert it to InChIKey.

## Plan:
1. [✓] Set up the working directories and verify file paths
2. [✓] Read the MOL2 file and load the molecular structure
3. [ ] Convert the molecular structure to InChIKey using RDKit
4. [ ] Save the InChIKey to the output file
5. [ ] Verify the results

<execute>
from rdkit.Chem import inchi

print("Step 3: Converting molecular structure to InChIKey")

# Generate InChI
inchi_string = inchi.MolToInchi(mol)
print(f"InChI: {inchi_string}")

# Generate InChIKey
inchikey = inchi.MolToInchiKey(mol)
print(f"InChIKey: {inchikey}")
</execute>
<observation>NameError("name 'mol' is not defined")</observation>
Let me run all the steps together in one code block:

<execute>
from rdkit import Chem
from rdkit.Chem import inchi
import os

# Define paths
input_file = "benchmark/dataset/M2OR/1a1e_ligand.mol2"
output_file = "/root/biodatalab/log/biomni_v20260209_pred_results/Vendor2/Claude-4.5-Sonnet/m2or_refinement.txt"
temp_dir = "/root/biodatalab/log/biomni_v20260209_tmp/Vendor2/Claude-4.5-Sonnet/m2or_refinement/"

# Create necessary directories
os.makedirs(os.path.dirname(output_file), exist_ok=True)
os.makedirs(temp_dir, exist_ok=True)

print("Step 1: Directories set up successfully")
print(f"Input file: {input_file}")
print(f"Output file: {output_file}")
print(f"Temp directory: {temp_dir}")

print("\nStep 2: Reading MOL2 file and loading molecular structure")
# Read the MOL2 file using RDKit
mol = Chem.MolFromMol2File(input_file)

if mol is None:
    print("Error: Failed to read molecule from MOL2 file")
else:
    print("Successfully loaded molecule from MOL2 file")
    print(f"Number of atoms: {mol.GetNumAtoms()}")
    print(f"Molecular formula: {Chem.rdMolDescriptors.CalcMolFormula(mol)}")
    
    print("\nStep 3: Converting molecular structure to InChIKey")
    # Generate InChI
    inchi_string = inchi.MolToInchi(mol)
    print(f"InChI: {inchi_string}")
    
    # Generate InChIKey
    inchikey = inchi.MolToInchiKey(mol)
    print(f"InChIKey: {inchikey}")
    
    print("\nStep 4: Saving InChIKey to output file")
    # Save the InChIKey to the output file
    with open(output_file, 'w') as f:
        f.write(inchikey)
    print(f"InChIKey saved to: {output_file}")
    
    print("\nStep 5: Verifying the results")
    # Verify the file was created and read it back
    if os.path.exists(output_file):
        with open(output_file, 'r') as f:
            saved_inchikey = f.read()
        print(f"Verification successful!")
        print(f"Saved InChIKey: {saved_inchikey}")
    else:
        print("Error: Output file was not created")
</execute>
<observation>Step 1: Directories set up successfully
Input file: benchmark/dataset/M2OR/1a1e_ligand.mol2
Output file: /root/biodatalab/log/biomni_v20260209_pred_results/Vendor2/Claude-4.5-Sonnet/m2or_refinement.txt
Temp directory: /root/biodatalab/log/biomni_v20260209_tmp/Vendor2/Claude-4.5-Sonnet/m2or_refinement/

Step 2: Reading MOL2 file and loading molecular structure
Successfully loaded molecule from MOL2 file
Number of atoms: 38
Molecular formula: C25H35N3O9P-3

Step 3: Converting molecular structure to InChIKey
InChI: InChI=1S/C25H38N3O9P/c1-3-4-6-19-7-5-14-28(16-19)25(33)21(12-13-23(30)31)27-24(32)22(26-17(2)29)15-18-8-10-20(11-9-18)37-38(34,35)36/h8-11,19,21-22H,3-7,12-16H2,1-2H3,(H,26,29)(H,27,32)(H,30,31)(H2,34,35,36)/p-3/t19-,21+,22+/m1/s1
InChIKey: LYGDXUXRWFVLNH-HJNYFJLDSA-K

Step 4: Saving InChIKey to output file
InChIKey saved to: /root/biodatalab/log/biomni_v20260209_pred_results/Vendor2/Claude-4.5-Sonnet/m2or_refinement.txt

Step 5: Verifying the results
Verification successful!
Saved InChIKey: LYGDXUXRWFVLNH-HJNYFJLDSA-K
</observation>
Each response must include thinking process followed by either <execute> or <solution> tag. But there are no tags in the current response. Please follow the instruction, fix and regenerate the response again.
You're right, let me provide the final solution properly.

## Summary of Completed Work:

I have successfully completed the task of converting the molecular structure from the MOL2 file to its InChIKey format through the following steps:

## Plan:
1. [✓] Set up the working directories and verify file paths
2. [✓] Read the MOL2 file and load the molecular structure
3. [✓] Convert the molecular structure to InChIKey using RDKit
4. [✓] Save the InChIKey to the output file
5. [✓] Verify the results

The molecular structure from `benchmark/dataset/M2OR/1a1e_ligand.mol2` (containing 38 atoms with formula C25H35N3O9P-3) was successfully converted to its InChIKey representation and saved to the output file.

<solution>
LYGDXUXRWFVLNH-HJNYFJLDSA-K
</solution>